functions/OneTimeScripts/validationAgainstOpenDSS_MATLAB/ieee123_1ph_created/results/pv010_batt000/powers21.csv
Element, Terminal, P(kW), Q(kvar),  P_Normal, Q_Normal, P_Emergency, Q_Emergency
"Line.L115"             ,   1,       828.8,       370.7,         0.0,         0.0,         0.0,         0.0
"Line.L115"             ,   2,      -825.6,      -364.0
"Line.L1"               ,   1,         6.1,         3.1,         0.0,         0.0,         0.0,         0.0
"Line.L1"               ,   2,        -6.1,        -3.1
"Line.L2"               ,   1,        30.7,        15.4,         0.0,         0.0,         0.0,         0.0
"Line.L2"               ,   2,       -30.7,       -15.4
"Line.L3"               ,   1,       776.4,       339.4,         0.0,         0.0,         0.0,         0.0
"Line.L3"               ,   2,      -774.2,      -335.0
"Line.L4"               ,   1,        12.3,         6.1,         0.0,         0.0,         0.0,         0.0
"Line.L4"               ,   2,       -12.3,        -6.1
"Line.L5"               ,   1,        18.4,         9.2,         0.0,         0.0,         0.0,         0.0
"Line.L5"               ,   2,       -18.4,        -9.2
"Line.L6"               ,   1,        12.3,         6.1,         0.0,         0.0,         0.0,         0.0
"Line.L6"               ,   2,       -12.3,        -6.1
"Line.L7"               ,   1,       768.1,       331.9,         0.0,         0.0,         0.0,         0.0
"Line.L7"               ,   2,      -766.7,      -329.0
"Line.L8"               ,   1,         6.1,         3.1,         0.0,         0.0,         0.0,         0.0
"Line.L8"               ,   2,        -6.1,        -3.1
"Line.L9"               ,   1,        17.4,        15.4,         0.0,         0.0,         0.0,         0.0
"Line.L9"               ,   2,       -17.4,       -15.4
"Line.L10"              ,   1,       743.2,       310.5,         0.0,         0.0,         0.0,         0.0
"Line.L10"              ,   2,      -741.2,      -306.5
"Line.L11"              ,   1,        18.4,         9.2,         0.0,         0.0,         0.0,         0.0
"Line.L11"              ,   2,       -18.4,        -9.2
"Line.L12"              ,   1,        30.7,        15.4,         0.0,         0.0,         0.0,         0.0
"Line.L12"              ,   2,       -30.7,       -15.4
"Line.L13"              ,   1,       260.5,       202.5,         0.0,         0.0,         0.0,         0.0
"Line.L13"              ,   2,      -259.5,      -200.6
"Line.L14"              ,   1,        12.3,         6.1,         0.0,         0.0,         0.0,         0.0
"Line.L14"              ,   2,       -12.3,        -6.1
"Line.L15"              ,   1,         6.1,         3.1,         0.0,         0.0,         0.0,         0.0
"Line.L15"              ,   2,        -6.1,        -3.1
"Line.L16"              ,   1,        12.3,         6.1,         0.0,         0.0,         0.0,         0.0
"Line.L16"              ,   2,       -12.3,        -6.1
"Line.L17"              ,   1,         6.1,         3.1,         0.0,         0.0,         0.0,         0.0
"Line.L17"              ,   2,        -6.1,        -3.1
"Line.L18"              ,   1,        24.6,        12.3,         0.0,         0.0,         0.0,         0.0
"Line.L18"              ,   2,       -24.6,       -12.3
"Line.L19"              ,   1,        72.7,        43.1,         0.0,         0.0,         0.0,         0.0
"Line.L19"              ,   2,       -72.7,       -43.0
"Line.L20"              ,   1,        12.3,         6.1,         0.0,         0.0,         0.0,         0.0
"Line.L20"              ,   2,       -12.3,        -6.1
"Line.L21"              ,   1,        12.3,         6.1,         0.0,         0.0,         0.0,         0.0
"Line.L21"              ,   2,       -12.3,        -6.1
"Line.L22"              ,   1,        60.4,        36.9,         0.0,         0.0,         0.0,         0.0
"Line.L22"              ,   2,       -60.4,       -36.9
"Line.L23"              ,   1,        12.3,         6.1,         0.0,         0.0,         0.0,         0.0
"Line.L23"              ,   2,       -12.3,        -6.1
"Line.L24"              ,   1,        48.1,        30.7,         0.0,         0.0,         0.0,         0.0
"Line.L24"              ,   2,       -48.1,       -30.7
"Line.L25"              ,   1,        24.6,        12.3,         0.0,         0.0,         0.0,         0.0
"Line.L25"              ,   2,       -24.6,       -12.3
"Line.L26"              ,   1,        23.5,        18.4,         0.0,         0.0,         0.0,         0.0
"Line.L26"              ,   2,       -23.5,       -18.4
"Line.L27"              ,   1,        12.3,         6.1,         0.0,         0.0,         0.0,         0.0
"Line.L27"              ,   2,       -12.3,        -6.1
"Line.L28"              ,   1,        12.3,         6.1,         0.0,         0.0,         0.0,         0.0
"Line.L28"              ,   2,       -12.3,        -6.1
"Line.L29"              ,   1,        12.3,         6.1,         0.0,         0.0,         0.0,         0.0
"Line.L29"              ,   2,       -12.3,        -6.1
"Line.L30"              ,   1,        24.6,        12.3,         0.0,         0.0,         0.0,         0.0
"Line.L30"              ,   2,       -24.6,       -12.3
"Line.L31"              ,   1,        12.3,         6.1,         0.0,         0.0,         0.0,         0.0
"Line.L31"              ,   2,       -12.3,        -6.1
"Line.L32"              ,   1,        -0.0,        -0.0,         0.0,         0.0,         0.0,         0.0
"Line.L32"              ,   2,         0.0,         0.0
"Line.L33"              ,   1,         6.1,         3.1,         0.0,         0.0,         0.0,         0.0
"Line.L33"              ,   2,        -6.1,        -3.1
"Line.L34"              ,   1,        18.4,         9.2,         0.0,         0.0,         0.0,         0.0
"Line.L34"              ,   2,       -18.4,        -9.2
"Line.L35"              ,   1,        24.6,        12.3,         0.0,         0.0,         0.0,         0.0
"Line.L35"              ,   2,       -24.6,       -12.3
"Line.L36"              ,   1,       125.2,       126.4,         0.0,         0.0,         0.0,         0.0
"Line.L36"              ,   2,      -125.1,      -126.3
"Line.L37"              ,   1,        12.3,         6.1,         0.0,         0.0,         0.0,         0.0
"Line.L37"              ,   2,       -12.3,        -6.1
"Line.L38"              ,   1,        12.3,         6.1,         0.0,         0.0,         0.0,         0.0
"Line.L38"              ,   2,       -12.3,        -6.1
"Line.L39"              ,   1,         6.1,         3.1,         0.0,         0.0,         0.0,         0.0
"Line.L39"              ,   2,        -6.1,        -3.1
"Line.L40"              ,   1,         6.1,         3.1,         0.0,         0.0,         0.0,         0.0
"Line.L40"              ,   2,        -6.1,        -3.1
"Line.L41"              ,   1,       119.0,       123.2,         0.0,         0.0,         0.0,         0.0
"Line.L41"              ,   2,      -118.9,      -123.0
"Line.L42"              ,   1,        12.3,         6.1,         0.0,         0.0,         0.0,         0.0
"Line.L42"              ,   2,       -12.3,        -6.1
"Line.L43"              ,   1,       100.5,       113.8,         0.0,         0.0,         0.0,         0.0
"Line.L43"              ,   2,      -100.5,      -113.7
"Line.L44"              ,   1,        12.3,         6.1,         0.0,         0.0,         0.0,         0.0
"Line.L44"              ,   2,       -12.3,        -6.1
"Line.L45"              ,   1,        88.2,       107.6,         0.0,         0.0,         0.0,         0.0
"Line.L45"              ,   2,       -88.1,      -107.5
"Line.L46"              ,   1,         6.1,         3.1,         0.0,         0.0,         0.0,         0.0
"Line.L46"              ,   2,        -6.1,        -3.1
"Line.L47"              ,   1,        -5.5,        46.1,         0.0,         0.0,         0.0,         0.0
"Line.L47"              ,   2,         5.5,       -46.1
"Line.L48"              ,   1,        61.4,        38.4,         0.0,         0.0,         0.0,         0.0
"Line.L48"              ,   2,       -61.4,       -38.4
"Line.L49"              ,   1,        18.4,         9.2,         0.0,         0.0,         0.0,         0.0
"Line.L49"              ,   2,       -18.4,        -9.2
"Line.L50"              ,   1,         6.1,         3.1,         0.0,         0.0,         0.0,         0.0
"Line.L50"              ,   2,        -6.1,        -3.1
"Line.L51"              ,   1,         0.0,        -0.0,         0.0,         0.0,         0.0,         0.0
"Line.L51"              ,   2,         0.0,         0.0
"Line.L52"              ,   1,       436.8,        80.7,         0.0,         0.0,         0.0,         0.0
"Line.L52"              ,   2,      -436.4,       -79.9
"Line.L53"              ,   1,       424.2,        73.7,         0.0,         0.0,         0.0,         0.0
"Line.L53"              ,   2,      -423.9,       -73.3
"Line.L54"              ,   1,        12.3,         6.1,         0.0,         0.0,         0.0,         0.0
"Line.L54"              ,   2,       -12.3,        -6.1
"Line.L55"              ,   1,       411.6,        67.1,         0.0,         0.0,         0.0,         0.0
"Line.L55"              ,   2,      -411.0,       -65.8
"Line.L56"              ,   1,         6.1,         3.1,         0.0,         0.0,         0.0,         0.0
"Line.L56"              ,   2,        -6.1,        -3.1
"Line.L57"              ,   1,         5.6,         6.1,         0.0,         0.0,         0.0,         0.0
"Line.L57"              ,   2,        -5.6,        -6.1
"Line.L58"              ,   1,       405.4,        59.7,         0.0,         0.0,         0.0,         0.0
"Line.L58"              ,   2,      -404.1,       -57.0
"Line.L59"              ,   1,         6.1,         3.1,         0.0,         0.0,         0.0,         0.0
"Line.L59"              ,   2,        -6.1,        -3.1
"Line.L60"              ,   1,         0.0,        -0.0,         0.0,         0.0,         0.0,         0.0
"Line.L60"              ,   2,        -0.0,         0.0
"Line.L61"              ,   1,        67.1,        64.5,         0.0,         0.0,         0.0,         0.0
"Line.L61"              ,   2,       -67.1,       -64.4
"Line.L62"              ,   1,        54.8,        58.3,         0.0,         0.0,         0.0,         0.0
"Line.L62"              ,   2,       -54.7,       -58.3
"Line.L63"              ,   1,        42.5,        52.2,         0.0,         0.0,         0.0,         0.0
"Line.L63"              ,   2,       -42.4,       -52.2
"Line.L64"              ,   1,        19.4,        41.4,         0.0,         0.0,         0.0,         0.0
"Line.L64"              ,   2,       -19.3,       -41.4
"Line.L65"              ,   1,        23.0,        10.7,         0.0,         0.0,         0.0,         0.0
"Line.L65"              ,   2,       -23.0,       -10.7
"Line.L66"              ,   1,        36.9,        18.5,         0.0,         0.0,         0.0,         0.0
"Line.L66"              ,   2,       -36.9,       -18.4
"Line.L67"              ,   1,       171.5,       -97.7,         0.0,         0.0,         0.0,         0.0
"Line.L67"              ,   2,      -171.4,        98.0
"Line.L68"              ,   1,       122.0,        67.9,         0.0,         0.0,         0.0,         0.0
"Line.L68"              ,   2,      -121.9,       -67.8
"Line.L69"              ,   1,        30.7,        15.4,         0.0,         0.0,         0.0,         0.0
"Line.L69"              ,   2,       -30.7,       -15.4
"Line.L70"              ,   1,        18.4,         9.2,         0.0,         0.0,         0.0,         0.0
"Line.L70"              ,   2,       -18.4,        -9.2
"Line.L71"              ,   1,        12.3,         6.1,         0.0,         0.0,         0.0,         0.0
"Line.L71"              ,   2,       -12.3,        -6.1
"Line.L72"              ,   1,        36.9,        18.5,         0.0,         0.0,         0.0,         0.0
"Line.L72"              ,   2,       -36.9,       -18.4
"Line.L73"              ,   1,       134.5,      -116.4,         0.0,         0.0,         0.0,         0.0
"Line.L73"              ,   2,      -134.4,       116.6
"Line.L74"              ,   1,        24.6,        12.3,         0.0,         0.0,         0.0,         0.0
"Line.L74"              ,   2,       -24.6,       -12.3
"Line.L75"              ,   1,        12.3,         6.1,         0.0,         0.0,         0.0,         0.0
"Line.L75"              ,   2,       -12.3,        -6.1
"Line.L76"              ,   1,        74.3,      -161.9,         0.0,         0.0,         0.0,         0.0
"Line.L76"              ,   2,       -74.2,       162.2
"Line.L77"              ,   1,        66.6,       -10.0,         0.0,         0.0,         0.0,         0.0
"Line.L77"              ,   2,       -66.5,        10.0
"Line.L78"              ,   1,        61.9,      -168.3,         0.0,         0.0,         0.0,         0.0
"Line.L78"              ,   2,       -61.9,       168.4
"Line.L79"              ,   1,        12.3,         6.1,         0.0,         0.0,         0.0,         0.0
"Line.L79"              ,   2,       -12.3,        -6.1
"Line.L80"              ,   1,        49.6,      -174.5,         0.0,         0.0,         0.0,         0.0
"Line.L80"              ,   2,       -49.4,       174.9
"Line.L81"              ,   1,        37.1,      -181.0,         0.0,         0.0,         0.0,         0.0
"Line.L81"              ,   2,       -37.1,       181.1
"Line.L82"              ,   1,        18.6,      -190.4,         0.0,         0.0,         0.0,         0.0
"Line.L82"              ,   2,       -18.5,       190.6
"Line.L83"              ,   1,        18.4,         9.2,         0.0,         0.0,         0.0,         0.0
"Line.L83"              ,   2,       -18.4,        -9.2
"Line.L84"              ,   1,         6.2,      -196.7,         0.0,         0.0,         0.0,         0.0
"Line.L84"              ,   2,        -6.1,       196.9
"Line.L85"              ,   1,        12.3,         6.1,         0.0,         0.0,         0.0,         0.0
"Line.L85"              ,   2,       -12.3,        -6.1
"Line.L86"              ,   1,        60.4,       -13.1,         0.0,         0.0,         0.0,         0.0
"Line.L86"              ,   2,       -60.4,        13.1
"Line.L87"              ,   1,        12.3,       -10.5,         0.0,         0.0,         0.0,         0.0
"Line.L87"              ,   2,       -12.3,        10.5
"Line.L88"              ,   1,        49.1,        -8.7,         0.0,         0.0,         0.0,         0.0
"Line.L88"              ,   2,       -49.1,         8.8
"Line.L89"              ,   1,        12.3,       -10.5,         0.0,         0.0,         0.0,         0.0
"Line.L89"              ,   2,       -12.3,        10.5
"Line.L90"              ,   1,        36.9,         1.8,         0.0,         0.0,         0.0,         0.0
"Line.L90"              ,   2,       -36.8,        -1.8
"Line.L91"              ,   1,        12.3,       -10.5,         0.0,         0.0,         0.0,         0.0
"Line.L91"              ,   2,       -12.3,        10.5
"Line.L92"              ,   1,        24.6,        12.3,         0.0,         0.0,         0.0,         0.0
"Line.L92"              ,   2,       -24.6,       -12.3
"Line.L93"              ,   1,        12.3,         6.1,         0.0,         0.0,         0.0,         0.0
"Line.L93"              ,   2,       -12.3,        -6.1
"Line.L94"              ,   1,        12.3,         6.1,         0.0,         0.0,         0.0,         0.0
"Line.L94"              ,   2,       -12.3,        -6.1
"Line.L95"              ,   1,         6.1,         3.1,         0.0,         0.0,         0.0,         0.0
"Line.L95"              ,   2,        -6.1,        -3.1
"Line.L96"              ,   1,        23.5,        18.4,         0.0,         0.0,         0.0,         0.0
"Line.L96"              ,   2,       -23.5,       -18.4
"Line.L97"              ,   1,        11.2,        12.3,         0.0,         0.0,         0.0,         0.0
"Line.L97"              ,   2,       -11.2,       -12.3
"Line.L98"              ,   1,        -1.1,         6.1,         0.0,         0.0,         0.0,         0.0
"Line.L98"              ,   2,         1.1,        -6.1
"Line.L99"              ,   1,         0.0,        -0.0,         0.0,         0.0,         0.0,         0.0
"Line.L99"              ,   2,         0.0,         0.0
"Line.L118"             ,   1,        98.4,        49.3,         0.0,         0.0,         0.0,         0.0
"Line.L118"             ,   2,       -98.4,       -49.3
"Line.L100"             ,   1,        30.7,        15.4,         0.0,         0.0,         0.0,         0.0
"Line.L100"             ,   2,       -30.7,       -15.4
"Line.L101"             ,   1,        67.7,        33.9,         0.0,         0.0,         0.0,         0.0
"Line.L101"             ,   2,       -67.6,       -33.9
"Line.L102"             ,   1,        24.6,        12.3,         0.0,         0.0,         0.0,         0.0
"Line.L102"             ,   2,       -24.6,       -12.3
"Line.L103"             ,   1,        12.3,         6.1,         0.0,         0.0,         0.0,         0.0
"Line.L103"             ,   2,       -12.3,        -6.1
"Line.L104"             ,   1,        24.6,        12.3,         0.0,         0.0,         0.0,         0.0
"Line.L104"             ,   2,       -24.6,       -12.3
"Line.L105"             ,   1,        43.1,        21.6,         0.0,         0.0,         0.0,         0.0
"Line.L105"             ,   2,       -43.1,       -21.6
"Line.L106"             ,   1,        12.3,         6.1,         0.0,         0.0,         0.0,         0.0
"Line.L106"             ,   2,       -12.3,        -6.1
"Line.L107"             ,   1,        43.1,        21.6,         0.0,         0.0,         0.0,         0.0
"Line.L107"             ,   2,       -43.0,       -21.5
"Line.L108"             ,   1,         0.0,        -0.0,         0.0,         0.0,         0.0,         0.0
"Line.L108"             ,   2,         0.0,         0.0
"Line.L109"             ,   1,        30.7,        15.4,         0.0,         0.0,         0.0,         0.0
"Line.L109"             ,   2,       -30.7,       -15.4
"Line.L110"             ,   1,         6.1,         3.1,         0.0,         0.0,         0.0,         0.0
"Line.L110"             ,   2,        -6.1,        -3.1
"Line.L111"             ,   1,        24.6,        12.3,         0.0,         0.0,         0.0,         0.0
"Line.L111"             ,   2,       -24.6,       -12.3
"Line.L112"             ,   1,        18.4,         9.2,         0.0,         0.0,         0.0,         0.0
"Line.L112"             ,   2,       -18.4,        -9.2
"Line.L113"             ,   1,         6.1,         3.1,         0.0,         0.0,         0.0,         0.0
"Line.L113"             ,   2,        -6.1,        -3.1
"Line.L114"             ,   1,       162.3,       145.2,         0.0,         0.0,         0.0,         0.0
"Line.L114"             ,   2,      -162.1,      -144.9
"Line.L116"             ,   1,       450.0,        88.6,         0.0,         0.0,         0.0,         0.0
"Line.L116"             ,   2,      -449.1,       -86.9
"Line.L117"             ,   1,       330.8,       -10.5,         0.0,         0.0,         0.0,         0.0
"Line.L117"             ,   2,      -330.4,        11.4
"Line.SW1"              ,   1,       828.8,       370.7,         0.0,         0.0,         0.0,         0.0
"Line.SW1"              ,   2,      -828.8,      -370.7
"Line.SW2"              ,   1,       450.0,        88.6,         0.0,         0.0,         0.0,         0.0
"Line.SW2"              ,   2,      -450.0,       -88.6
"Line.SW3"              ,   1,       162.3,       145.2,         0.0,         0.0,         0.0,         0.0
"Line.SW3"              ,   2,      -162.3,      -145.2
"Line.SW4"              ,   1,       330.8,       -10.5,         0.0,         0.0,         0.0,         0.0
"Line.SW4"              ,   2,      -330.8,        10.5
"Line.SW5"              ,   1,        98.4,        49.3,         0.0,         0.0,         0.0,         0.0
"Line.SW5"              ,   2,       -98.4,       -49.3
"Line.XFM1"             ,   1,        -0.0,         0.0,         0.0,         0.0,         0.0,         0.0
"Line.XFM1"             ,   2,         0.0,        -0.0
"Transformer.REG1A"     ,   1,       828.8,       370.7,         0.0,         0.0,         0.0,         0.0
"Transformer.REG1A"     ,   2,      -828.8,      -370.7
"Transformer.REG2A"     ,   1,        18.4,         9.2,         0.0,         0.0,         0.0,         0.0
"Transformer.REG2A"     ,   2,       -18.4,        -9.2
"Transformer.REG3A"     ,   1,        24.6,        12.3,         0.0,         0.0,         0.0,         0.0
"Transformer.REG3A"     ,   2,       -24.6,       -12.3
"Transformer.REG4A"     ,   1,       330.8,       -10.5,         0.0,         0.0,         0.0,         0.0
"Transformer.REG4A"     ,   2,      -330.8,        10.5
"Load.S1"               ,   1,        12.3,         6.1
"Load.S2"               ,   1,         6.1,         3.1
"Load.S4"               ,   1,        12.3,         6.1
"Load.S5"               ,   1,         6.1,         3.1
"Load.S6"               ,   1,        12.3,         6.1
"Load.S7"               ,   1,         6.1,         3.1
"Load.S9"               ,   1,        12.3,         6.1
"Load.S10"              ,   1,         6.1,         3.1
"Load.S11"              ,   1,        12.3,         6.1
"Load.S12"              ,   1,         6.1,         3.1
"Load.S16"              ,   1,        12.3,         6.1
"Load.S17"              ,   1,         6.1,         3.1
"Load.S19"              ,   1,        12.3,         6.1
"Load.S20"              ,   1,        12.3,         6.1
"Load.S22"              ,   1,        12.3,         6.1
"Load.S24"              ,   1,        12.3,         6.1
"Load.S28"              ,   1,        12.3,         6.1
"Load.S29"              ,   1,        12.3,         6.1
"Load.S30"              ,   1,        12.3,         6.1
"Load.S31"              ,   1,         6.1,         3.1
"Load.S32"              ,   1,         6.1,         3.1
"Load.S33"              ,   1,        12.3,         6.1
"Load.S34"              ,   1,        12.3,         6.1
"Load.S35"              ,   1,        12.3,         6.1
"Load.S37"              ,   1,        12.3,         6.1
"Load.S38"              ,   1,         6.1,         3.1
"Load.S39"              ,   1,         6.1,         3.1
"Load.S41"              ,   1,         6.1,         3.1
"Load.S42"              ,   1,         6.1,         3.1
"Load.S43"              ,   1,        12.3,         6.1
"Load.S45"              ,   1,         6.1,         3.1
"Load.S46"              ,   1,         6.1,         3.1
"Load.S47"              ,   1,        32.2,        23.0
"Load.S48"              ,   1,        64.5,        46.1
"Load.S49"              ,   1,        43.0,        29.2
"Load.S50"              ,   1,        12.3,         6.1
"Load.S51"              ,   1,         6.1,         3.1
"Load.S52"              ,   1,        12.3,         6.1
"Load.S53"              ,   1,        12.3,         6.1
"Load.S55"              ,   1,         6.1,         3.1
"Load.S56"              ,   1,         6.1,         3.1
"Load.S58"              ,   1,         6.1,         3.1
"Load.S59"              ,   1,         6.1,         3.1
"Load.S60"              ,   1,         6.1,         3.1
"Load.S62"              ,   1,        12.3,         6.1
"Load.S63"              ,   1,        12.3,         6.1
"Load.S64"              ,   1,        23.0,        10.7
"Load.S65"              ,   1,        43.0,        30.7
"Load.S66"              ,   1,        23.0,        10.7
"Load.S68"              ,   1,         6.1,         3.1
"Load.S69"              ,   1,        12.3,         6.1
"Load.S70"              ,   1,         6.1,         3.1
"Load.S71"              ,   1,        12.3,         6.1
"Load.S73"              ,   1,        12.3,         6.1
"Load.S74"              ,   1,        12.3,         6.1
"Load.S75"              ,   1,        12.3,         6.1
"Load.S76"              ,   1,        75.2,        55.3
"Load.S77"              ,   1,        12.3,         6.1
"Load.S79"              ,   1,        12.3,         6.1
"Load.S80"              ,   1,        12.3,         6.1
"Load.S82"              ,   1,        12.3,         6.1
"Load.S83"              ,   1,         6.1,         3.1
"Load.S84"              ,   1,         6.1,         3.1
"Load.S85"              ,   1,        12.3,         6.1
"Load.S86"              ,   1,         6.1,         3.1
"Load.S87"              ,   1,        12.3,         6.1
"Load.S88"              ,   1,        12.3,         6.1
"Load.S90"              ,   1,        12.3,         6.1
"Load.S92"              ,   1,        12.3,         6.1
"Load.S94"              ,   1,        12.3,         6.1
"Load.S95"              ,   1,         6.1,         3.1
"Load.S96"              ,   1,         6.1,         3.1
"Load.S98"              ,   1,        12.3,         6.1
"Load.S99"              ,   1,        12.3,         6.1
"Load.S100"             ,   1,        12.3,         6.1
"Load.S102"             ,   1,         6.1,         3.1
"Load.S103"             ,   1,        12.3,         6.1
"Load.S104"             ,   1,        12.3,         6.1
"Load.S106"             ,   1,        12.3,         6.1
"Load.S107"             ,   1,        12.3,         6.1
"Load.S109"             ,   1,        12.3,         6.1
"Load.S111"             ,   1,         6.1,         3.1
"Load.S112"             ,   1,         6.1,         3.1
"Load.S113"             ,   1,        12.3,         6.1
"Load.S114"             ,   1,         6.1,         3.1
"Generator.C83"         ,   1,         0.0,      -200.0
"Generator.C88"         ,   1,        -0.0,       -16.7
"Generator.C90"         ,   1,        -0.0,       -16.7
"Generator.C92"         ,   1,        -0.0,       -16.7
"PVSystem.9"            ,   1,       -13.3,        -0.0
"PVSystem.28"           ,   1,       -13.3,        -0.0
"PVSystem.48"           ,   1,       -70.0,        -0.0
"PVSystem.58"           ,   1,        -6.7,        -0.0
"PVSystem.65"           ,   1,       -46.7,        -0.0
"PVSystem.76"           ,   1,       -81.7,        -0.0
"PVSystem.87"           ,   1,       -13.3,        -0.0
"PVSystem.100"          ,   1,       -13.3,        -0.0
